performance/linearized_pglib_scopf_baseline/pglib_opf_case30_as.json
{"elements": {"bus": {"1": {"matpower_bustype": "ref", "area": 1.0, "vm": 1.0, "va": -0.0, "base_kv": 135.0, "zone": 1.0, "v_min": 0.95, "v_max": 1.05, "lmp": 2.9375, "pl": 0.0}, "2": {"matpower_bustype": "PV", "area": 1.0, "vm": 1.025, "va": 2.806500392104082, "base_kv": 135.0, "zone": 1.0, "v_min": 0.95, "v_max": 1.1, "lmp": 3.6984744492363326, "pl": 21.7}, "3": {"matpower_bustype": "PQ", "area": 1.0, "vm": 1.0, "va": 4.755160177870959, "base_kv": 135.0, "zone": 1.0, "v_min": 0.95, "v_max": 1.05, "lmp": 3.7541239508617013, "pl": 2.4}, "4": {"matpower_bustype": "PQ", "area": 1.0, "vm": 1.0, "va": 5.676157169770294, "base_kv": 135.0, "zone": 1.0, "v_min": 0.95, "v_max": 1.05, "lmp": 3.7628141696981254, "pl": 7.6}, "5": {"matpower_bustype": "PQ", "area": 1.0, "vm": 1.0, "va": 9.141885835888068, "base_kv": 135.0, "zone": 1.0, "v_min": 0.95, "v_max": 1.05, "lmp": 3.66185952800604, "pl": 94.2}, "6": {"matpower_bustype": "PQ", "area": 1.0, "vm": 1.0, "va": 6.735122385710557, "base_kv": 135.0, "zone": 1.0, "v_min": 0.95, "v_max": 1.05, "lmp": 3.6252999999999984, "pl": 0.0}, "7": {"matpower_bustype": "PQ", "area": 1.0, "vm": 1.0, "va": 8.359435631127932, "base_kv": 135.0, "zone": 1.0, "v_min": 0.95, "v_max": 1.05, "lmp": 3.640440814628763, "pl": 22.8}, "8": {"matpower_bustype": "PQ", "area": 1.0, "vm": 1.0, "va": 6.919919091855163, "base_kv": 135.0, "zone": 1.0, "v_min": 0.95, "v_max": 1.05, "lmp": 3.6252999999999997, "pl": 30.0}, "9": {"matpower_bustype": "PQ", "area": 1.0, "vm": 1.0, "va": 8.654677884344126, "base_kv": 135.0, "zone": 1.0, "v_min": 0.95, "v_max": 1.05, "lmp": 3.1064323049134788, "pl": 0.0}, "10": {"matpower_bustype": "PQ", "area": 1.0, "vm": 1.0, "va": 10.300081001534629, "base_kv": 135.0, "zone": 1.0, "v_min": 0.95, "v_max": 1.05, "lmp": 2.8320311200119517, "pl": 5.8}, "11": {"matpower_bustype": "PQ", "area": 1.0, "vm": 1.0, "va": 7.462925670472014, "base_kv": 135.0, "zone": 1.0, "v_min": 0.95, "v_max": 1.05, "lmp": 3.1064323049134788, "pl": 0.0}, "12": {"matpower_bustype": "PQ", "area": 1.0, "vm": 1.0, "va": 8.463517784696592, "base_kv": 135.0, "zone": 1.0, "v_min": 0.95, "v_max": 1.05, "lmp": 4.766666666666667, "pl": 11.2}, "13": {"matpower_bustype": "PV", "area": 1.0, "vm": 1.025, "va": 5.909789357207296, "base_kv": 135.0, "zone": 1.0, "v_min": 0.95, "v_max": 1.1, "lmp": 4.766666666666667, "pl": 0.0}, "14": {"matpower_bustype": "PQ", "area": 1.0, "vm": 1.0, "va": 9.72844677005423, "base_kv": 135.0, "zone": 1.0, "v_min": 0.95, "v_max": 1.05, "lmp": 5.221210117143854, "pl": 6.2}, "15": {"matpower_bustype": "PQ", "area": 1.0, "vm": 1.0, "va": 10.006173834023624, "base_kv": 135.0, "zone": 1.0, "v_min": 0.95, "v_max": 1.05, "lmp": 5.575928081427929, "pl": 8.2}, "16": {"matpower_bustype": "PQ", "area": 1.0, "vm": 1.0, "va": 9.643532164773776, "base_kv": 135.0, "zone": 1.0, "v_min": 0.95, "v_max": 1.05, "lmp": 3.959756332661016, "pl": 3.5000000000000004}, "17": {"matpower_bustype": "PQ", "area": 1.0, "vm": 1.0, "va": 10.403449780761733, "base_kv": 135.0, "zone": 1.0, "v_min": 0.95, "v_max": 1.05, "lmp": 3.175181211725477, "pl": 9.0}, "18": {"matpower_bustype": "PQ", "area": 1.0, "vm": 1.0, "va": 10.988967407922704, "base_kv": 135.0, "zone": 1.0, "v_min": 0.95, "v_max": 1.05, "lmp": 4.61620103473449, "pl": 3.2}, "19": {"matpower_bustype": "PQ", "area": 1.0, "vm": 1.0, "va": 11.333213850365883, "base_kv": 135.0, "zone": 1.0, "v_min": 0.95, "v_max": 1.05, "lmp": 4.04871025929837, "pl": 9.5}, "20": {"matpower_bustype": "PQ", "area": 1.0, "vm": 1.0, "va": 11.144265452839361, "base_kv": 135.0, "zone": 1.0, "v_min": 0.95, "v_max": 1.05, "lmp": 3.7500309038056754, "pl": 2.2}, "21": {"matpower_bustype": "PQ", "area": 1.0, "vm": 1.0, "va": 10.949278229075732, "base_kv": 135.0, "zone": 1.0, "v_min": 0.95, "v_max": 1.05, "lmp": 2.2727081159469065, "pl": 17.5}, "22": {"matpower_bustype": "PV", "area": 1.0, "vm": 1.025, "va": 10.917200125240374, "base_kv": 135.0, "zone": 1.0, "v_min": 0.95, "v_max": 1.1, "lmp": 2.0964728302868925, "pl": 0.0}, "23": {"matpower_bustype": "PV", "area": 1.0, "vm": 1.025, "va": 10.819171478829771, "base_kv": 135.0, "zone": 1.0, "v_min": 0.95, "v_max": 1.1, "lmp": 8.075595283716716, "pl": 3.2}, "24": {"matpower_bustype": "PQ", "area": 1.0, "vm": 1.0, "va": 11.410815964122186, "base_kv": 135.0, "zone": 1.0, "v_min": 0.95, "v_max": 1.05, "lmp": 11.416734613508659, "pl": 8.7}, "25": {"matpower_bustype": "PQ", "area": 1.0, "vm": 1.0, "va": 11.399021860119122, "base_kv": 135.0, "zone": 1.0, "v_min": 0.95, "v_max": 1.05, "lmp": 511.4167346135084, "pl": 0.0}, "26": {"matpower_bustype": "PQ", "area": 1.0, "vm": 1.0, "va": 12.161055727643115, "base_kv": 135.0, "zone": 1.0, "v_min": 0.95, "v_max": 1.05, "lmp": 511.41673461350837, "pl": 3.5000000000000004}, "27": {"matpower_bustype": "PV", "area": 1.0, "vm": 1.025, "va": 10.973027835307855, "base_kv": 135.0, "zone": 1.0, "v_min": 0.95, "v_max": 1.1, "lmp": 511.41673461350854, "pl": 0.0}, "28": {"matpower_bustype": "PQ", "area": 1.0, "vm": 1.0, "va": 7.215134283620469, "base_kv": 135.0, "zone": 1.0, "v_min": 0.95, "v_max": 1.05, "lmp": 3.6253000000000033, "pl": 0.0}, "29": {"matpower_bustype": "PQ", "area": 1.0, "vm": 1.0, "va": 12.416123742450823, "base_kv": 135.0, "zone": 1.0, "v_min": 0.95, "v_max": 1.05, "lmp": 511.41673461350854, "pl": 2.4}, "30": {"matpower_bustype": "PQ", "area": 1.0, "vm": 1.0, "va": 13.367930854360031, "base_kv": 135.0, "zone": 1.0, "v_min": 0.95, "v_max": 1.05, "lmp": 511.41673461350854, "pl": 10.6}}, "load": {"load_2": {"in_service": true, "p_load": 21.7, "q_load": 12.7, "bus": "2"}, "load_3": {"in_service": true, "p_load": 2.4, "q_load": 1.2, "bus": "3"}, "load_4": {"in_service": true, "p_load": 7.6, "q_load": 1.6, "bus": "4"}, "load_5": {"in_service": true, "p_load": 94.2, "q_load": 19.0, "bus": "5"}, "load_7": {"in_service": true, "p_load": 22.8, "q_load": 10.9, "bus": "7"}, "load_8": {"in_service": true, "p_load": 30.0, "q_load": 30.0, "bus": "8"}, "load_10": {"in_service": true, "p_load": 5.8, "q_load": 2.0, "bus": "10"}, "load_12": {"in_service": true, "p_load": 11.2, "q_load": 7.5, "bus": "12"}, "load_14": {"in_service": true, "p_load": 6.2, "q_load": 1.6, "bus": "14"}, "load_15": {"in_service": true, "p_load": 8.2, "q_load": 2.5, "bus": "15"}, "load_16": {"in_service": true, "p_load": 3.5000000000000004, "q_load": 1.8000000000000003, "bus": "16"}, "load_17": {"in_service": true, "p_load": 9.0, "q_load": 5.8, "bus": "17"}, "load_18": {"in_service": true, "p_load": 3.2, "q_load": 0.9000000000000001, "bus": "18"}, "load_19": {"in_service": true, "p_load": 9.5, "q_load": 3.4000000000000004, "bus": "19"}, "load_20": {"in_service": true, "p_load": 2.2, "q_load": 0.7, "bus": "20"}, "load_21": {"in_service": true, "p_load": 17.5, "q_load": 11.2, "bus": "21"}, "load_23": {"in_service": true, "p_load": 3.2, "q_load": 1.6, "bus": "23"}, "load_24": {"in_service": true, "p_load": 8.7, "q_load": 6.7, "bus": "24"}, "load_26": {"in_service": true, "p_load": 3.5000000000000004, "q_load": 2.3, "bus": "26"}, "load_29": {"in_service": true, "p_load": 2.4, "q_load": 0.9000000000000001, "bus": "29"}, "load_30": {"in_service": true, "p_load": 10.6, "q_load": 1.9, "bus": "30"}}, "shunt": {"shunt_10": {"shunt_type": "fixed", "bs": 5.26, "gs": 0.0, "bus": "10"}, "shunt_24": {"shunt_type": "fixed", "bs": 25.0, "gs": 0.0, "bus": "24"}}, "generator": {"1": {"bus": "1", "pg": 129.99999999999957, "qg": 114.99999999999999, "vg": 1.0, "mbase": 100.0, "in_service": true, "p_min": 50.0, "p_max": 200.0, "q_min": -20.0, "q_max": 250.0, "generator_type": "thermal", "p_cost": {"data_type": "cost_curve", "cost_curve_type": "piecewise", "values": [[50.0, 109.375], [100.0, 237.5], [150.0, 384.375], [200.0, 550.0]]}, "startup_cost": 0.0, "shutdown_cost": 0.0}, "2": {"bus": "2", "pg": 60.0, "qg": 40.0, "vg": 1.025, "mbase": 100.0, "in_service": true, "p_min": 20.0, "p_max": 80.0, "q_min": -20.0, "q_max": 100.0, "generator_type": "thermal", "p_cost": {"data_type": "cost_curve", "cost_curve_type": "piecewise", "values": [[20.0, 42.0], [40.0, 98.0], [60.0, 168.0], [80.0, 252.0]]}, "startup_cost": 0.0, "shutdown_cost": 0.0}, "3": {"bus": "5", "pg": 26.666666666666668, "qg": 32.5, "vg": 1.0, "mbase": 100.0, "in_service": true, "p_min": 15.0, "p_max": 50.0, "q_min": -15.0, "q_max": 80.0, "generator_type": "thermal", "p_cost": {"data_type": "cost_curve", "cost_curve_type": "piecewise", "values": [[15.0, 29.0625], [26.666666666666668, 71.1111111111111], [38.33333333333333, 130.1736111111111], [50.0, 206.25]]}, "startup_cost": 0.0, "shutdown_cost": 0.0}, "4": {"bus": "8", "pg": 24.896926718001282, "qg": 22.5, "vg": 1.0, "mbase": 100.0, "in_service": true, "p_min": 10.0, "p_max": 35.0, "q_min": -15.0, "q_max": 60.0, "generator_type": "thermal", "p_cost": {"data_type": "cost_curve", "cost_curve_type": "piecewise", "values": [[10.0, 33.334], [18.333333333333336, 62.38650000000001], [26.666666666666668, 92.59733333333334], [35.0, 123.9665]]}, "startup_cost": 0.0, "shutdown_cost": 0.0}, "5": {"bus": "11", "pg": 10.0, "qg": 20.0, "vg": 1.0, "mbase": 100.0, "in_service": true, "p_min": 10.0, "p_max": 30.0, "q_min": -10.0, "q_max": 50.0, "generator_type": "thermal", "p_cost": {"data_type": "cost_curve", "cost_curve_type": "piecewise", "values": [[10.0, 32.5], [16.666666666666668, 56.94444444444444], [23.333333333333336, 83.61111111111111], [30.0, 112.5]]}, "startup_cost": 0.0, "shutdown_cost": 0.0}, "6": {"bus": "13", "pg": 31.836406615332493, "qg": 22.5, "vg": 1.025, "mbase": 100.0, "in_service": true, "p_min": 12.0, "p_max": 40.0, "q_min": -15.0, "q_max": 60.0, "generator_type": "thermal", "p_cost": {"data_type": "cost_curve", "cost_curve_type": "piecewise", "values": [[12.0, 39.6], [21.333333333333336, 75.37777777777778], [30.66666666666667, 115.51111111111112], [40.0, 160.0]]}, "startup_cost": 0.0, "shutdown_cost": 0.0}}, "branch": {"1": {"from_bus": "1", "to_bus": "2", "resistance": 0.0192, "reactance": 0.0575, "charging_susceptance": 0.0264, "branch_type": "line", "rating_long_term": 130.0, "rating_short_term": 130.0, "rating_emergency": 130.0, "in_service": true, "angle_diff_min": -30.0, "angle_diff_max": 30.0, "pf": 85.1872561751793, "qf": null, "pt": null, "qt": null}, "2": {"from_bus": "1", "to_bus": "3", "resistance": 0.0452, "reactance": 0.1852, "charging_susceptance": 0.0204, "branch_type": "line", "rating_long_term": 130.0, "rating_short_term": 130.0, "rating_emergency": 130.0, "in_service": true, "angle_diff_min": -30.0, "angle_diff_max": 30.0, "pf": 44.81274382482043, "qf": null, "pt": null, "qt": null}, "3": {"from_bus": "2", "to_bus": "4", "resistance": 0.057, "reactance": 0.1737, "charging_susceptance": 0.0184, "branch_type": "line", "rating_long_term": 65.0, "rating_short_term": 65.0, "rating_emergency": 65.0, "in_service": true, "angle_diff_min": -30.0, "angle_diff_max": 30.0, "pf": 28.834173386555147, "qf": null, "pt": null, "qt": null}, "4": {"from_bus": "3", "to_bus": "4", "resistance": 0.0132, "reactance": 0.0379, "charging_susceptance": 0.0042, "branch_type": "line", "rating_long_term": 130.0, "rating_short_term": 130.0, "rating_emergency": 130.0, "in_service": true, "angle_diff_min": -30.0, "angle_diff_max": 30.0, "pf": 42.41274382482043, "qf": null, "pt": null, "qt": null}, "5": {"from_bus": "2", "to_bus": "5", "resistance": 0.0472, "reactance": 0.1983, "charging_susceptance": 0.0209, "branch_type": "line", "rating_long_term": 130.0, "rating_short_term": 130.0, "rating_emergency": 130.0, "in_service": true, "angle_diff_min": -30.0, "angle_diff_max": 30.0, "pf": 55.76063306956765, "qf": null, "pt": null, "qt": null}, "6": {"from_bus": "2", "to_bus": "6", "resistance": 0.0581, "reactance": 0.1763, "charging_susceptance": 0.0187, "branch_type": "line", "rating_long_term": 65.0, "rating_short_term": 65.0, "rating_emergency": 65.0, "in_service": true, "angle_diff_min": -30.0, "angle_diff_max": 30.0, "pf": 38.8924497190565, "qf": null, "pt": null, "qt": null}, "7": {"from_bus": "4", "to_bus": "6", "resistance": 0.0119, "reactance": 0.0414, "charging_susceptance": 0.0045, "branch_type": "line", "rating_long_term": 90.0, "rating_short_term": 90.0, "rating_emergency": 90.0, "in_service": true, "angle_diff_min": -30.0, "angle_diff_max": 30.0, "pf": 44.64354995712641, "qf": null, "pt": null, "qt": null}, "8": {"from_bus": "5", "to_bus": "7", "resistance": 0.046, "reactance": 0.116, "charging_susceptance": 0.0102, "branch_type": "line", "rating_long_term": 70.0, "rating_short_term": 70.0, "rating_emergency": 70.0, "in_service": true, "angle_diff_min": -30.0, "angle_diff_max": 30.0, "pf": -11.772700263765683, "qf": null, "pt": null, "qt": null}, "9": {"from_bus": "6", "to_bus": "7", "resistance": 0.0267, "reactance": 0.082, "charging_susceptance": 0.0085, "branch_type": "line", "rating_long_term": 130.0, "rating_short_term": 130.0, "rating_emergency": 130.0, "in_service": true, "angle_diff_min": -30.0, "angle_diff_max": 30.0, "pf": 34.5727002637657, "qf": null, "pt": null, "qt": null}, "10": {"from_bus": "6", "to_bus": "8", "resistance": 0.012, "reactance": 0.042, "charging_susceptance": 0.0045, "branch_type": "line", "rating_long_term": 32.0, "rating_short_term": 32.0, "rating_emergency": 32.0, "in_service": true, "angle_diff_min": -30.0, "angle_diff_max": 30.0, "pf": 7.679311831104268, "qf": null, "pt": null, "qt": null}, "11": {"from_bus": "6", "to_bus": "9", "resistance": 0.0, "reactance": 0.208, "charging_susceptance": 0.0, "branch_type": "line", "rating_long_term": 65.0, "rating_short_term": 65.0, "rating_emergency": 65.0, "in_service": true, "angle_diff_min": -30.0, "angle_diff_max": 30.0, "pf": 16.107001743229464, "qf": null, "pt": null, "qt": null}, "12": {"from_bus": "6", "to_bus": "10", "resistance": 0.0, "reactance": 0.556, "charging_susceptance": 0.0, "branch_type": "line", "rating_long_term": 32.0, "rating_short_term": 32.0, "rating_emergency": 32.0, "in_service": true, "angle_diff_min": -30.0, "angle_diff_max": 30.0, "pf": 11.190695241631236, "qf": null, "pt": null, "qt": null}, "13": {"from_bus": "9", "to_bus": "11", "resistance": 0.0, "reactance": 0.208, "charging_susceptance": 0.0, "branch_type": "line", "rating_long_term": 65.0, "rating_short_term": 65.0, "rating_emergency": 65.0, "in_service": true, "angle_diff_min": -30.0, "angle_diff_max": 30.0, "pf": -9.999999999999993, "qf": null, "pt": null, "qt": null}, "14": {"from_bus": "9", "to_bus": "10", "resistance": 0.0, "reactance": 0.11, "charging_susceptance": 0.0, "branch_type": "line", "rating_long_term": 65.0, "rating_short_term": 65.0, "rating_emergency": 65.0, "in_service": true, "angle_diff_min": -30.0, "angle_diff_max": 30.0, "pf": 26.107001743229468, "qf": null, "pt": null, "qt": null}, "15": {"from_bus": "4", "to_bus": "12", "resistance": 0.0, "reactance": 0.256, "charging_susceptance": 0.0, "branch_type": "line", "rating_long_term": 65.0, "rating_short_term": 65.0, "rating_emergency": 65.0, "in_service": true, "angle_diff_min": -30.0, "angle_diff_max": 30.0, "pf": 19.003367254249103, "qf": null, "pt": null, "qt": null}, "16": {"from_bus": "12", "to_bus": "13", "resistance": 0.0, "reactance": 0.14, "charging_susceptance": 0.0, "branch_type": "line", "rating_long_term": 65.0, "rating_short_term": 65.0, "rating_emergency": 65.0, "in_service": true, "angle_diff_min": -30.0, "angle_diff_max": 30.0, "pf": -31.836406615332493, "qf": null, "pt": null, "qt": null}, "17": {"from_bus": "12", "to_bus": "14", "resistance": 0.1231, "reactance": 0.2559, "charging_susceptance": 0.0, "branch_type": "line", "rating_long_term": 32.0, "rating_short_term": 32.0, "rating_emergency": 32.0, "in_service": true, "angle_diff_min": -30.0, "angle_diff_max": 30.0, "pf": 8.6272667441977, "qf": null, "pt": null, "qt": null}, "18": {"from_bus": "12", "to_bus": "15", "resistance": 0.0662, "reactance": 0.1304, "charging_susceptance": 0.0, "branch_type": "line", "rating_long_term": 32.0, "rating_short_term": 32.0, "rating_emergency": 32.0, "in_service": true, "angle_diff_min": -30.0, "angle_diff_max": 30.0, "pf": 20.64756693754966, "qf": null, "pt": null, "qt": null}, "19": {"from_bus": "12", "to_bus": "16", "resistance": 0.0945, "reactance": 0.1987, "charging_susceptance": 0.0, "branch_type": "line", "rating_long_term": 32.0, "rating_short_term": 32.0, "rating_emergency": 32.0, "in_service": true, "angle_diff_min": -30.0, "angle_diff_max": 30.0, "pf": 10.36494018783424, "qf": null, "pt": null, "qt": null}, "20": {"from_bus": "14", "to_bus": "15", "resistance": 0.221, "reactance": 0.1997, "charging_susceptance": 0.0, "branch_type": "line", "rating_long_term": 16.0, "rating_short_term": 16.0, "rating_emergency": 16.0, "in_service": true, "angle_diff_min": -30.0, "angle_diff_max": 30.0, "pf": 2.4272667441977114, "qf": null, "pt": null, "qt": null}, "21": {"from_bus": "16", "to_bus": "17", "resistance": 0.0824, "reactance": 0.1932, "charging_susceptance": 0.0, "branch_type": "line", "rating_long_term": 16.0, "rating_short_term": 16.0, "rating_emergency": 16.0, "in_service": true, "angle_diff_min": -30.0, "angle_diff_max": 30.0, "pf": 6.86494018783423, "qf": null, "pt": null, "qt": null}, "22": {"from_bus": "15", "to_bus": "18", "resistance": 0.107, "reactance": 0.2185, "charging_susceptance": 0.0, "branch_type": "line", "rating_long_term": 16.0, "rating_short_term": 16.0, "rating_emergency": 16.0, "in_service": true, "angle_diff_min": -30.0, "angle_diff_max": 30.0, "pf": 7.850335804110379, "qf": null, "pt": null, "qt": null}, "23": {"from_bus": "18", "to_bus": "19", "resistance": 0.0639, "reactance": 0.1292, "charging_susceptance": 0.0, "branch_type": "line", "rating_long_term": 16.0, "rating_short_term": 16.0, "rating_emergency": 16.0, "in_service": true, "angle_diff_min": -30.0, "angle_diff_max": 30.0, "pf": 4.650335804110373, "qf": null, "pt": null, "qt": null}, "24": {"from_bus": "19", "to_bus": "20", "resistance": 0.034, "reactance": 0.068, "charging_susceptance": 0.0, "branch_type": "line", "rating_long_term": 32.0, "rating_short_term": 32.0, "rating_emergency": 32.0, "in_service": true, "angle_diff_min": -30.0, "angle_diff_max": 30.0, "pf": -4.849664195889572, "qf": null, "pt": null, "qt": null}, "25": {"from_bus": "10", "to_bus": "20", "resistance": 0.0936, "reactance": 0.209, "charging_susceptance": 0.0, "branch_type": "line", "rating_long_term": 32.0, "rating_short_term": 32.0, "rating_emergency": 32.0, "in_service": true, "angle_diff_min": -30.0, "angle_diff_max": 30.0, "pf": 7.049664195889624, "qf": null, "pt": null, "qt": null}, "26": {"from_bus": "10", "to_bus": "17", "resistance": 0.0324, "reactance": 0.0845, "charging_susceptance": 0.0, "branch_type": "line", "rating_long_term": 32.0, "rating_short_term": 32.0, "rating_emergency": 32.0, "in_service": true, "angle_diff_min": -30.0, "angle_diff_max": 30.0, "pf": 2.1350598121657463, "qf": null, "pt": null, "qt": null}, "27": {"from_bus": "10", "to_bus": "21", "resistance": 0.0348, "reactance": 0.0749, "charging_susceptance": 0.0, "branch_type": "line", "rating_long_term": 32.0, "rating_short_term": 32.0, "rating_emergency": 32.0, "in_service": true, "angle_diff_min": -30.0, "angle_diff_max": 30.0, "pf": 15.12767572151007, "qf": null, "pt": null, "qt": null}, "28": {"from_bus": "10", "to_bus": "22", "resistance": 0.0727, "reactance": 0.1499, "charging_susceptance": 0.0, "branch_type": "line", "rating_long_term": 32.0, "rating_short_term": 32.0, "rating_emergency": 32.0, "in_service": true, "angle_diff_min": -30.0, "angle_diff_max": 30.0, "pf": 7.185297255295159, "qf": null, "pt": null, "qt": null}, "29": {"from_bus": "21", "to_bus": "22", "resistance": 0.0116, "reactance": 0.0236, "charging_susceptance": 0.0, "branch_type": "line", "rating_long_term": 32.0, "rating_short_term": 32.0, "rating_emergency": 32.0, "in_service": true, "angle_diff_min": -30.0, "angle_diff_max": 30.0, "pf": -2.372324278489957, "qf": null, "pt": null, "qt": null}, "30": {"from_bus": "15", "to_bus": "23", "resistance": 0.1, "reactance": 0.202, "charging_susceptance": 0.0, "branch_type": "line", "rating_long_term": 16.0, "rating_short_term": 16.0, "rating_emergency": 16.0, "in_service": true, "angle_diff_min": -30.0, "angle_diff_max": 30.0, "pf": 7.024497877636965, "qf": null, "pt": null, "qt": null}, "31": {"from_bus": "22", "to_bus": "24", "resistance": 0.115, "reactance": 0.179, "charging_susceptance": 0.0, "branch_type": "line", "rating_long_term": 16.0, "rating_short_term": 16.0, "rating_emergency": 16.0, "in_service": true, "angle_diff_min": -30.0, "angle_diff_max": 30.0, "pf": 4.812972976805298, "qf": null, "pt": null, "qt": null}, "32": {"from_bus": "23", "to_bus": "24", "resistance": 0.132, "reactance": 0.27, "charging_susceptance": 0.0, "branch_type": "line", "rating_long_term": 16.0, "rating_short_term": 16.0, "rating_emergency": 16.0, "in_service": true, "angle_diff_min": -30.0, "angle_diff_max": 30.0, "pf": 3.8244978776369667, "qf": null, "pt": null, "qt": null}, "33": {"from_bus": "24", "to_bus": "25", "resistance": 0.1885, "reactance": 0.3292, "charging_susceptance": 0.0, "branch_type": "line", "rating_long_term": 16.0, "rating_short_term": 16.0, "rating_emergency": 16.0, "in_service": true, "angle_diff_min": -30.0, "angle_diff_max": 30.0, "pf": -0.06252914555774995, "qf": null, "pt": null, "qt": null}, "34": {"from_bus": "25", "to_bus": "26", "resistance": 0.2544, "reactance": 0.38, "charging_susceptance": 0.0, "branch_type": "line", "rating_long_term": 16.0, "rating_short_term": 16.0, "rating_emergency": 16.0, "in_service": true, "angle_diff_min": -30.0, "angle_diff_max": 30.0, "pf": 3.499999999999991, "qf": null, "pt": null, "qt": null}, "35": {"from_bus": "25", "to_bus": "27", "resistance": 0.1093, "reactance": 0.2087, "charging_susceptance": 0.0, "branch_type": "line", "rating_long_term": 16.0, "rating_short_term": 16.0, "rating_emergency": 16.0, "in_service": true, "angle_diff_min": -30.0, "angle_diff_max": 30.0, "pf": -3.5625291455577446, "qf": null, "pt": null, "qt": null}, "36": {"from_bus": "28", "to_bus": "27", "resistance": 0.0, "reactance": 0.396, "charging_susceptance": 0.0, "branch_type": "line", "rating_long_term": 65.0, "rating_short_term": 65.0, "rating_emergency": 65.0, "in_service": true, "angle_diff_min": -30.0, "angle_diff_max": 30.0, "pf": 16.562529145557725, "qf": null, "pt": null, "qt": null}, "37": {"from_bus": "27", "to_bus": "29", "resistance": 0.2198, "reactance": 0.4153, "charging_susceptance": 0.0, "branch_type": "line", "rating_long_term": 16.0, "rating_short_term": 16.0, "rating_emergency": 16.0, "in_service": true, "angle_diff_min": -30.0, "angle_diff_max": 30.0, "pf": 6.064718276354242, "qf": null, "pt": null, "qt": null}, "38": {"from_bus": "27", "to_bus": "30", "resistance": 0.3202, "reactance": 0.6027, "charging_susceptance": 0.0, "branch_type": "line", "rating_long_term": 16.0, "rating_short_term": 16.0, "rating_emergency": 16.0, "in_service": true, "angle_diff_min": -30.0, "angle_diff_max": 30.0, "pf": 6.935281723645755, "qf": null, "pt": null, "qt": null}, "39": {"from_bus": "29", "to_bus": "30", "resistance": 0.2399, "reactance": 0.4533, "charging_susceptance": 0.0, "branch_type": "line", "rating_long_term": 16.0, "rating_short_term": 16.0, "rating_emergency": 16.0, "in_service": true, "angle_diff_min": -30.0, "angle_diff_max": 30.0, "pf": 3.664718276354245, "qf": null, "pt": null, "qt": null}, "40": {"from_bus": "8", "to_bus": "28", "resistance": 0.0636, "reactance": 0.2, "charging_susceptance": 0.0214, "branch_type": "line", "rating_long_term": 32.0, "rating_short_term": 32.0, "rating_emergency": 32.0, "in_service": true, "angle_diff_min": -30.0, "angle_diff_max": 30.0, "pf": 2.576238549105531, "qf": null, "pt": null, "qt": null}, "41": {"from_bus": "6", "to_bus": "28", "resistance": 0.0169, "reactance": 0.0599, "charging_susceptance": 0.0065, "branch_type": "line", "rating_long_term": 32.0, "rating_short_term": 32.0, "rating_emergency": 32.0, "in_service": true, "angle_diff_min": -30.0, "angle_diff_max": 30.0, "pf": 13.98629059645217, "qf": null, "pt": null, "qt": null}}, "contingency": {"1": {"branch_contingency": "1", "monitored_branches": {"2": {"pf": 130.00000000000006}, "7": {"pf": 86.1639445462575}, "4": {"pf": 127.60000000000016}}}, "2": {"branch_contingency": "2", "monitored_branches": {"1": {"pf": 129.9999999999998}}}, "3": {"branch_contingency": "3"}, "4": {"branch_contingency": "4", "monitored_branches": {"1": {"pf": 127.59999999999975}}}, "5": {"branch_contingency": "5"}, "6": {"branch_contingency": "6"}, "7": {"branch_contingency": "7"}, "8": {"branch_contingency": "8"}, "9": {"branch_contingency": "9"}, "10": {"branch_contingency": "10"}, "11": {"branch_contingency": "11"}, "12": {"branch_contingency": "12"}, "14": {"branch_contingency": "14"}, "15": {"branch_contingency": "15"}, "17": {"branch_contingency": "17"}, "18": {"branch_contingency": "18"}, "19": {"branch_contingency": "19"}, "20": {"branch_contingency": "20"}, "21": {"branch_contingency": "21"}, "22": {"branch_contingency": "22"}, "23": {"branch_contingency": "23"}, "24": {"branch_contingency": "24"}, "25": {"branch_contingency": "25"}, "26": {"branch_contingency": "26"}, "27": {"branch_contingency": "27"}, "28": {"branch_contingency": "28"}, "29": {"branch_contingency": "29"}, "30": {"branch_contingency": "30"}, "31": {"branch_contingency": "31"}, "32": {"branch_contingency": "32"}, "33": {"branch_contingency": "33"}, "35": {"branch_contingency": "35"}, "36": {"branch_contingency": "36", "monitored_branches": {"33": {"pf": 16.49999999999996}, "31": {"pf": 16.0}}}, "37": {"branch_contingency": "37"}, "38": {"branch_contingency": "38"}, "39": {"branch_contingency": "39"}, "40": {"branch_contingency": "40"}, "41": {"branch_contingency": "41"}}}, "system": {"model_name": "pglib_opf_case30_as", "mpc_version": "'2'", "baseMVA": 100.0, "reference_bus": "1", "reference_bus_angle": 0.0, "load_mismatch_cost": 1000000.0, "total_cost": 1054.5044777416117, "p_balance_violation": 0.0}}